Pcp_File_Version=4
*** BLOCK I: ATMOSPHERIC INFORMATION  **********************************
   MaxAL                    (MaxAL = number of atmospheric data-records)
   2256
 DailyVar  SinusVar  lLay  lBCCycles lInterc lDummy  lDummy  lDummy  lDummy  lDummy
       f       f       f       f       f       f       f       f       f       f
 hCritS                 (max. allowed pressure head at the soil surface)
      0
       tAtm        Prec       rSoil       rRoot      hCritA          rB          hB          ht    RootDepth
1 0 0 0 1000000.0 0 0 0 
2 0 0 0 1000000.0 0 0 0 
3 0 0 0 1000000.0 0 0 0 
4 0 0 0 1000000.0 0 0 0 
5 0 0 0.000491317 1000000.0 0 0 0 
6 0 0 0.000255309 1000000.0 0 0 0 
7 0 0 0.000391087 1000000.0 0 0 0 
8 0 0 0.00151029 1000000.0 0 0 0 
9 0 0 0.00286144 1000000.0 0 0 0 
10 0 0 0.00375395 1000000.0 0 0 0 
11 0 0 0.00448684 1000000.0 0 0 0 
12 0 0 0.00521775 1000000.0 0 0 0 
13 0 0 0.00572692 1000000.0 0 0 0 
14 0 0 0.00576263 1000000.0 0 0 0 
15 0 0 0.00563691 1000000.0 0 0 0 
16 0 0 0.00500351 1000000.0 0 0 0 
17 0 0 0.00295018 1000000.0 0 0 0 
18 0 0 0.00200054 1000000.0 0 0 0 
19 0 0 0.00124751 1000000.0 0 0 0 
20 0 0 0.000919212 1000000.0 0 0 0 
21 0 0 0.000552534 1000000.0 0 0 0 
22 0 0 0.000317999 1000000.0 0 0 0 
23 0 0 0.000251038 1000000.0 0 0 0 
24 0 0 0.000205505 1000000.0 0 0 0 
25 0 0 0.000154251 1000000.0 0 0 0 
26.0006 2.41087 0 9.76e-005 1000000.0 0 0 0 
27 0 0 0 1000000.0 0 0 0 
28 0 0 0.000119563 1000000.0 0 0 0 
29 0 0 0.000322871 1000000.0 0 0 0 
30 0 0 0.000334043 1000000.0 0 0 0 
31 0 0 0.000281002 1000000.0 0 0 0 
32 0 0 0.000419936 1000000.0 0 0 0 
33 0 0 0.000755646 1000000.0 0 0 0 
34 0 0 0.00146761 1000000.0 0 0 0 
35 0 0 0.0017124 1000000.0 0 0 0 
36 0 0 0.00202662 1000000.0 0 0 0 
37 0 0 0.00251353 1000000.0 0 0 0 
38 0 0 0.00348105 1000000.0 0 0 0 
39 0 0 0.00465607 1000000.0 0 0 0 
40 0 0 0.00411966 1000000.0 0 0 0 
41 0 0 0.00373635 1000000.0 0 0 0 
42 0 0 0.00289933 1000000.0 0 0 0 
43 0 0 0.00150085 1000000.0 0 0 0 
44 0 0 0.000597673 1000000.0 0 0 0 
45 0 0 0 1000000.0 0 0 0 
46 0 0 0 1000000.0 0 0 0 
47 0 0 0 1000000.0 0 0 0 
48 0 0 0 1000000.0 0 0 0 
49 0 0 0 1000000.0 0 0 0 
50 0 0 0 1000000.0 0 0 0 
51 0 0 0 1000000.0 0 0 0 
52 0 0 0 1000000.0 0 0 0 
53 0 0 0.000216502 1000000.0 0 0 0 
54 0 0 0.00021524 1000000.0 0 0 0 
55 0 0 0.000316824 1000000.0 0 0 0 
56 0 0 0.00065152 1000000.0 0 0 0 
57 0 0 0.00125959 1000000.0 0 0 0 
58 0 0 0.00189532 1000000.0 0 0 0 
59 0 0 0.00220302 1000000.0 0 0 0 
60 0 0 0.00242747 1000000.0 0 0 0 
61 0 0 0.00242188 1000000.0 0 0 0 
62 0 0 0.00249721 1000000.0 0 0 0 
63 0 0 0.00210363 1000000.0 0 0 0 
64 0 0 0.00170923 1000000.0 0 0 0 
65 0 0 0.00223893 1000000.0 0 0 0 
66 0 0 0.00199259 1000000.0 0 0 0 
67 0 0 0.00150432 1000000.0 0 0 0 
68 0 0 0.000581685 1000000.0 0 0 0 
69 0 0 0.00024979 1000000.0 0 0 0 
70 0 0 0.000420202 1000000.0 0 0 0 
71 0 0 0.000114358 1000000.0 0 0 0 
72 0 0 0.000541059 1000000.0 0 0 0 
73 0 0 0.000890308 1000000.0 0 0 0 
74 0 0 0.000789622 1000000.0 0 0 0 
75 0 0 0.000578268 1000000.0 0 0 0 
76 0 0 0.000289152 1000000.0 0 0 0 
77 0 0 0.000327829 1000000.0 0 0 0 
78 0 0 0.000472999 1000000.0 0 0 0 
79 0 0 0.00144344 1000000.0 0 0 0 
80 0 0 0.00186065 1000000.0 0 0 0 
81 0 0 0.00295194 1000000.0 0 0 0 
82 0 0 0.00372615 1000000.0 0 0 0 
83 0 0 0.00436685 1000000.0 0 0 0 
84 0 0 0.00488205 1000000.0 0 0 0 
85 0 0 0.00545877 1000000.0 0 0 0 
86 0 0 0.0059232 1000000.0 0 0 0 
87 0 0 0.00555448 1000000.0 0 0 0 
88 0 0 0.00496635 1000000.0 0 0 0 
89 0 0 0.0045402 1000000.0 0 0 0 
90 0 0 0.00386523 1000000.0 0 0 0 
91 0 0 0.00277445 1000000.0 0 0 0 
92 0 0 0.0020121 1000000.0 0 0 0 
93 0 0 0.00042482 1000000.0 0 0 0 
94 0 0 0 1000000.0 0 0 0 
95 0 0 0 1000000.0 0 0 0 
96 0 0 0 1000000.0 0 0 0 
97 0 0 0 1000000.0 0 0 0 
98 0 0 0 1000000.0 0 0 0 
99 0 0 0 1000000.0 0 0 0 
100 0 0 0 1000000.0 0 0 0 
101 0 0 0.000203858 1000000.0 0 0 0 
102 0 0 0.000194654 1000000.0 0 0 0 
103 0 0 0.000380195 1000000.0 0 0 0 
104 0 0 0.00129102 1000000.0 0 0 0 
105 0 0 0.0026724 1000000.0 0 0 0 
106 0 0 0.0039759 1000000.0 0 0 0 
107 0 0 0.00525125 1000000.0 0 0 0 
108 0 0 0.00658753 1000000.0 0 0 0 
109 0 0 0.00732229 1000000.0 0 0 0 
110 0 0 0.00774901 1000000.0 0 0 0 
111 0 0 0.00749125 1000000.0 0 0 0 
112 0 0 0.0066564 1000000.0 0 0 0 
113 0 0 0.00499097 1000000.0 0 0 0 
114 0 0 0.00343504 1000000.0 0 0 0 
115 0 0 0.00222157 1000000.0 0 0 0 
116 0 0 0.0012091 1000000.0 0 0 0 
117 0 0 0 1000000.0 0 0 0 
118 0 0 0 1000000.0 0 0 0 
119 0 0 0 1000000.0 0 0 0 
120 0 0 0 1000000.0 0 0 0 
121 0 0 0 1000000.0 0 0 0 
121.5 2.41087 0 0 1000000.0 0 0 0 
123 0 0 0 1000000.0 0 0 0 
124 0 0 0 1000000.0 0 0 0 
125 0 0 0.000623945 1000000.0 0 0 0 
126 0 0 0.000538519 1000000.0 0 0 0 
127 0 0 0.000484468 1000000.0 0 0 0 
128 0 0 0.0014906 1000000.0 0 0 0 
129 0 0 0.00290875 1000000.0 0 0 0 
130 0 0 0.00448852 1000000.0 0 0 0 
131 0 0 0.00631578 1000000.0 0 0 0 
132 0 0 0.0073025 1000000.0 0 0 0 
133 0 0 0.00791727 1000000.0 0 0 0 
134 0 0 0.00792231 1000000.0 0 0 0 
135 0 0 0.00740573 1000000.0 0 0 0 
136 0 0 0.00671465 1000000.0 0 0 0 
137 0 0 0.00498828 1000000.0 0 0 0 
138 0 0 0.00290926 1000000.0 0 0 0 
139 0 0 0.000884042 1000000.0 0 0 0 
140 0 0 0 1000000.0 0 0 0 
141 0 0 0 1000000.0 0 0 0 
142 0 0 0 1000000.0 0 0 0 
143 0 0 0 1000000.0 0 0 0 
144 0 0 0 1000000.0 0 0 0 
145 0 0 0 1000000.0 0 0 0 
146 0 0 0 1000000.0 0 0 0 
147 0 0 0 1000000.0 0 0 0 
148 0 0 0 1000000.0 0 0 0 
149 0 0 0.000333328 1000000.0 0 0 0 
150 0 0 0.000305621 1000000.0 0 0 0 
151 0 0 0.000492572 1000000.0 0 0 0 
152 0 0 0.00106031 1000000.0 0 0 0 
153 0 0 0.00180812 1000000.0 0 0 0 
154 0 0 0.00288342 1000000.0 0 0 0 
155 0 0 0.00491801 1000000.0 0 0 0 
156 0 0 0.00621407 1000000.0 0 0 0 
157 0 0 0.00647902 1000000.0 0 0 0 
158 0 0 0.0069863 1000000.0 0 0 0 
159 0 0 0.00588132 1000000.0 0 0 0 
160 0 0 0.00533746 1000000.0 0 0 0 
161 0 0 0.00574335 1000000.0 0 0 0 
162 0 0 0.00277595 1000000.0 0 0 0 
163 0 0 0.00166024 1000000.0 0 0 0 
164 0 0 0.000128348 1000000.0 0 0 0 
165 0 0 0 1000000.0 0 0 0 
166 0 0 0 1000000.0 0 0 0 
167 0 0 0 1000000.0 0 0 0 
168 0 0 0 1000000.0 0 0 0 
169 0 0 0 1000000.0 0 0 0 
170 0 0 0 1000000.0 0 0 0 
171 0 0 0 1000000.0 0 0 0 
172 0 0 0 1000000.0 0 0 0 
173 0 0 0.000614057 1000000.0 0 0 0 
174 0 0 0.000439969 1000000.0 0 0 0 
175 0 0 0.000638738 1000000.0 0 0 0 
176 0 0 0.00191714 1000000.0 0 0 0 
177 0 0 0.00282264 1000000.0 0 0 0 
178 0 0 0.0044173 1000000.0 0 0 0 
179 0 0 0.00608422 1000000.0 0 0 0 
180 0 0 0.00717403 1000000.0 0 0 0 
181 0 0 0.00941685 1000000.0 0 0 0 
182 0 0 0.00742936 1000000.0 0 0 0 
183 0 0 0.00718817 1000000.0 0 0 0 
184 0 0 0.00775002 1000000.0 0 0 0 
185 0 0 0.00463925 1000000.0 0 0 0 
186 0 0 0.00293393 1000000.0 0 0 0 
187 0 0 0.00193918 1000000.0 0 0 0 
188 0 0 0.000794068 1000000.0 0 0 0 
189 0 0 0 1000000.0 0 0 0 
190 0 0 9.03e-005 1000000.0 0 0 0 
191 0 0 7.02e-005 1000000.0 0 0 0 
192 0 0 0 1000000.0 0 0 0 
193 0 0 0 1000000.0 0 0 0 
194 0 0 2.13e-005 1000000.0 0 0 0 
195 0 0 0 1000000.0 0 0 0 
196 0 0 0 1000000.0 0 0 0 
197 0 0 0.000471464 1000000.0 0 0 0 
198 0 0 0.000375509 1000000.0 0 0 0 
199 0 0 0.000542835 1000000.0 0 0 0 
200 0 0 0.00189414 1000000.0 0 0 0 
200.5 2.41087 0 0.00363155 1000000.0 0 0 0 
202 0 0 0.00533086 1000000.0 0 0 0 
203 0 0 0.0068095 1000000.0 0 0 0 
204 0 0 0.00844649 1000000.0 0 0 0 
205 0 0 0.00931544 1000000.0 0 0 0 
206 0 0 0.00971214 1000000.0 0 0 0 
207 0 0 0.00959937 1000000.0 0 0 0 
208 0 0 0.00822602 1000000.0 0 0 0 
209 0 0 0.00691615 1000000.0 0 0 0 
210 0 0 0.00539935 1000000.0 0 0 0 
211 0 0 0.00336053 1000000.0 0 0 0 
212 0 0 0.00228974 1000000.0 0 0 0 
213 0 0 0.00189753 1000000.0 0 0 0 
214 0 0 0.00127811 1000000.0 0 0 0 
215 0 0 0 1000000.0 0 0 0 
216 0 0 0 1000000.0 0 0 0 
217 0 0 0 1000000.0 0 0 0 
218 0 0 0 1000000.0 0 0 0 
219 0 0 0 1000000.0 0 0 0 
220 0 0 0 1000000.0 0 0 0 
221 0 0 0.000992801 1000000.0 0 0 0 
222 0 0 0.000969912 1000000.0 0 0 0 
223 0 0 0.00110667 1000000.0 0 0 0 
224 0 0 0.00202444 1000000.0 0 0 0 
225 0 0 0.00194245 1000000.0 0 0 0 
226 0 0 0.001777 1000000.0 0 0 0 
227 0 0 0.00222504 1000000.0 0 0 0 
228 0 0 0.00295455 1000000.0 0 0 0 
229 0 0 0.00469788 1000000.0 0 0 0 
230 0 0 0.00417052 1000000.0 0 0 0 
231 0 0 0.00366613 1000000.0 0 0 0 
232 0 0 0.00190878 1000000.0 0 0 0 
233 0 0 0.00119833 1000000.0 0 0 0 
234 0 0 0.000394914 1000000.0 0 0 0 
235 0 0 0 1000000.0 0 0 0 
236 0 0 0 1000000.0 0 0 0 
237 0 0 0 1000000.0 0 0 0 
238 0 0 0 1000000.0 0 0 0 
239 0 0 0 1000000.0 0 0 0 
240 0 0 0 1000000.0 0 0 0 
241 0 0 0 1000000.0 0 0 0 
242 0 0 0 1000000.0 0 0 0 
243 0 0 0 1000000.0 0 0 0 
244 0 0 0 1000000.0 0 0 0 
245 0 0 0.00028473 1000000.0 0 0 0 
246 0 0 0.000289172 1000000.0 0 0 0 
247 0 0 0.000332774 1000000.0 0 0 0 
248 0 0 0.000530589 1000000.0 0 0 0 
249 0 0 0.00100705 1000000.0 0 0 0 
250 0 0 0.00127382 1000000.0 0 0 0 
251 0 0 0.00119046 1000000.0 0 0 0 
252 0 0 0.00173088 1000000.0 0 0 0 
253 0 0 0.00143069 1000000.0 0 0 0 
254 0 0 0.00105052 1000000.0 0 0 0 
255 0 0 0.00100541 1000000.0 0 0 0 
256 0 0 0.00162859 1000000.0 0 0 0 
257 0 0 0.00118516 1000000.0 0 0 0 
258 0 0 8.84e-005 1000000.0 0 0 0 
259 0 0 0 1000000.0 0 0 0 
260 0 0 0 1000000.0 0 0 0 
261 0 0 0 1000000.0 0 0 0 
262 0 0 0 1000000.0 0 0 0 
263 0 0 0 1000000.0 0 0 0 
264 0 0 0 1000000.0 0 0 0 
265 0 0 0 1000000.0 0 0 0 
266 0 0 0 1000000.0 0 0 0 
267 0 0 0 1000000.0 0 0 0 
268 0 0 0 1000000.0 0 0 0 
269 0 0 0.000280948 1000000.0 0 0 0 
270 0 0 0.000287231 1000000.0 0 0 0 
271 0 0 0.000336082 1000000.0 0 0 0 
272 0 0 0.000514518 1000000.0 0 0 0 
273 0 0 0.000700445 1000000.0 0 0 0 
274 0 0 0.00124524 1000000.0 0 0 0 
275 0 0 0.00153106 1000000.0 0 0 0 
276 0 0 0.00198841 1000000.0 0 0 0 
277 0 0 0.00190809 1000000.0 0 0 0 
278 0 0 0.00150848 1000000.0 0 0 0 
279 0 0 0.00114266 1000000.0 0 0 0 
280 0 0 0.000877449 1000000.0 0 0 0 
281 0 0 0.000628748 1000000.0 0 0 0 
282 0 0 0.000200596 1000000.0 0 0 0 
283 0 0 0 1000000.0 0 0 0 
284 0 0 0 1000000.0 0 0 0 
285 0 0 0 1000000.0 0 0 0 
286 0 0 0 1000000.0 0 0 0 
287 0 0 0 1000000.0 0 0 0 
288 0 0 0 1000000.0 0 0 0 
289 0 0 0 1000000.0 0 0 0 
290 0 0 0 1000000.0 0 0 0 
291 0 0 0 1000000.0 0 0 0 
292 0 0 0 1000000.0 0 0 0 
293 0 0 0.000260863 1000000.0 0 0 0 
294 0 0 0.000264488 1000000.0 0 0 0 
295 0 0 0.000612928 1000000.0 0 0 0 
296 0 0 0.00191213 1000000.0 0 0 0 
297 0 0 0.00359759 1000000.0 0 0 0 
298 0 0 0.00545668 1000000.0 0 0 0 
299 0 0 0.00694253 1000000.0 0 0 0 
300 0 0 0.00821245 1000000.0 0 0 0 
301 0 0 0.00898769 1000000.0 0 0 0 
302 0 0 0.00942358 1000000.0 0 0 0 
303 0 0 0.00901849 1000000.0 0 0 0 
304 0 0 0.00727798 1000000.0 0 0 0 
305 0 0 0.00623913 1000000.0 0 0 0 
306 0 0 0.00459065 1000000.0 0 0 0 
307 0 0 0.00119811 1000000.0 0 0 0 
308 0 0 0.00129385 1000000.0 0 0 0 
309 0 0 0.000367667 1000000.0 0 0 0 
310 0 0 0 1000000.0 0 0 0 
311 0 0 0 1000000.0 0 0 0 
312 0 0 0 1000000.0 0 0 0 
313 0 0 0 1000000.0 0 0 0 
314 0 0 0 1000000.0 0 0 0 
315 0 0 0 1000000.0 0 0 0 
316 0 0 0 1000000.0 0 0 0 
317 0 0 0.000331737 1000000.0 0 0 0 
318 0 0 0.000330141 1000000.0 0 0 0 
319 0 0 0.00064775 1000000.0 0 0 0 
320 0 0 0.00205553 1000000.0 0 0 0 
321 0 0 0.00399273 1000000.0 0 0 0 
322 0 0 0.00564517 1000000.0 0 0 0 
323 0 0 0.00723291 1000000.0 0 0 0 
324 0 0 0.0083192 1000000.0 0 0 0 
325 0 0 0.00833194 1000000.0 0 0 0 
326 0 0 0.00773496 1000000.0 0 0 0 
327 0 0 0.00484229 1000000.0 0 0 0 
328 0 0 0.00337254 1000000.0 0 0 0 
329 0 0 0.00223061 1000000.0 0 0 0 
330 0 0 0.00146836 1000000.0 0 0 0 
331 0 0 0.000785707 1000000.0 0 0 0 
332 0 0 0.000764952 1000000.0 0 0 0 
333 0 0 1.68e-005 1000000.0 0 0 0 
334 0 0 0.000144797 1000000.0 0 0 0 
335 0 0 0 1000000.0 0 0 0 
336 0 0 0 1000000.0 0 0 0 
337 0 0 0 1000000.0 0 0 0 
338 0 0 0 1000000.0 0 0 0 
339 0 0 0 1000000.0 0 0 0 
340 0 0 0 1000000.0 0 0 0 
341 0 0 0.000440197 1000000.0 0 0 0 
342 0 0 0.000518189 1000000.0 0 0 0 
343 0 0 0.000433241 1000000.0 0 0 0 
344 0 0 0.000722457 1000000.0 0 0 0 
345 0 0 0.0013209 1000000.0 0 0 0 
346 0 0 0.00223967 1000000.0 0 0 0 
347 0 0 0.00376186 1000000.0 0 0 0 
348 0 0 0.00593923 1000000.0 0 0 0 
349 0 0 0.00844875 1000000.0 0 0 0 
350 0 0 0.00831714 1000000.0 0 0 0 
351 0 0 0.00910192 1000000.0 0 0 0 
352 0 0 0.00799555 1000000.0 0 0 0 
353 0 0 0.0060557 1000000.0 0 0 0 
354 0 0 0.00555984 1000000.0 0 0 0 
355 0 0 0.00221086 1000000.0 0 0 0 
356 0 0 0.0011108 1000000.0 0 0 0 
357 0 0 0 1000000.0 0 0 0 
358 0 0 0 1000000.0 0 0 0 
359 0 0 0 1000000.0 0 0 0 
360 0 0 0 1000000.0 0 0 0 
361 0 0 0 1000000.0 0 0 0 
362 0 0 0 1000000.0 0 0 0 
363 0 0 0 1000000.0 0 0 0 
364 0 0 0 1000000.0 0 0 0 
365 0 0 0.000379848 1000000.0 0 0 0 
366 0 0 0.000379304 1000000.0 0 0 0 
367 0 0 0.000796669 1000000.0 0 0 0 
368 0 0 0.00261219 1000000.0 0 0 0 
369 0 0 0.00404561 1000000.0 0 0 0 
370 0 0 0.00654859 1000000.0 0 0 0 
371 0 0 0.00970708 1000000.0 0 0 0 
372 0 0 0.00996716 1000000.0 0 0 0 
373 0 0 0.0108685 1000000.0 0 0 0 
374 0 0 0.00984859 1000000.0 0 0 0 
375 0 0 0.00977338 1000000.0 0 0 0 
376 0 0 0.00876751 1000000.0 0 0 0 
377 0 0 0.00776557 1000000.0 0 0 0 
378 0 0 0.00402109 1000000.0 0 0 0 
379 0 0 0.00249244 1000000.0 0 0 0 
380 0 0 0.00150692 1000000.0 0 0 0 
381 0 0 0.000129612 1000000.0 0 0 0 
382 0 0 0 1000000.0 0 0 0 
383 0 0 0 1000000.0 0 0 0 
384 0 0 0 1000000.0 0 0 0 
385 0 0 0 1000000.0 0 0 0 
386 0 0 0 1000000.0 0 0 0 
387 0 0 0 1000000.0 0 0 0 
388 0 0 0 1000000.0 0 0 0 
389 0 0 0.000430716 1000000.0 0 0 0 
390 0 0 0.000418201 1000000.0 0 0 0 
391 0 0 0.000724203 1000000.0 0 0 0 
392 0 0 0.00213641 1000000.0 0 0 0 
393 0 0 0.00472246 1000000.0 0 0 0 
394 0 0 0.00681109 1000000.0 0 0 0 
395 0 0 0.00892648 1000000.0 0 0 0 
396 0 0 0.0102434 1000000.0 0 0 0 
397 0 0 0.0110738 1000000.0 0 0 0 
398 0 0 0.0121619 1000000.0 0 0 0 
399 0 0 0.0119488 1000000.0 0 0 0 
400 0 0 0.00879171 1000000.0 0 0 0 
401 0 0 0.00496337 1000000.0 0 0 0 
402 0 0 0.00391812 1000000.0 0 0 0 
403 0 0 0.00201433 1000000.0 0 0 0 
404 0 0 0.00100324 1000000.0 0 0 0 
405 0 0 0 1000000.0 0 0 0 
405.482 2.41087 0 0 1000000.0 0 0 0 
407 0 0 0.000143371 1000000.0 0 0 0 
408 0 0 8.83e-005 1000000.0 0 0 0 
409 0 0 0 1000000.0 0 0 0 
410 0 0 0 1000000.0 0 0 0 
411 0 0 0 1000000.0 0 0 0 
412 0 0 0 1000000.0 0 0 0 
413 0 0 0.000539988 1000000.0 0 0 0 
414 0 0 0.000440864 1000000.0 0 0 0 
415 0 0 0.00087465 1000000.0 0 0 0 
416 0 0 0.00267094 1000000.0 0 0 0 
417 0 0 0.0051078 1000000.0 0 0 0 
418 0 0 0.00556988 1000000.0 0 0 0 
419 0 0 0.00660718 1000000.0 0 0 0 
420 0 0 0.00686199 1000000.0 0 0 0 
421 0 0 0.00966664 1000000.0 0 0 0 
422 0 0 0.0101294 1000000.0 0 0 0 
423 0 0 0.0118511 1000000.0 0 0 0 
424 0 0 0.0101263 1000000.0 0 0 0 
425 0 0 0.00799877 1000000.0 0 0 0 
426 0 0 0.00701469 1000000.0 0 0 0 
427 0 0 0.00174567 1000000.0 0 0 0 
428 0 0 0.00108136 1000000.0 0 0 0 
429 0 0 0 1000000.0 0 0 0 
430 0 0 0 1000000.0 0 0 0 
431 0 0 0 1000000.0 0 0 0 
432 0 0 0 1000000.0 0 0 0 
433 0 0 0 1000000.0 0 0 0 
434 0 0 0 1000000.0 0 0 0 
435 0 0 0 1000000.0 0 0 0 
436 0 0 0 1000000.0 0 0 0 
437 0 0 0.000572585 1000000.0 0 0 0 
438 0 0 0.00075304 1000000.0 0 0 0 
439 0 0 0.0012389 1000000.0 0 0 0 
440 0 0 0.00349673 1000000.0 0 0 0 
441 0 0 0.0062116 1000000.0 0 0 0 
442 0 0 0.00876324 1000000.0 0 0 0 
443 0 0 0.0114197 1000000.0 0 0 0 
444 0 0 0.0135539 1000000.0 0 0 0 
445 0 0 0.0147589 1000000.0 0 0 0 
446 0 0 0.0155175 1000000.0 0 0 0 
447 0 0 0.012789 1000000.0 0 0 0 
448 0 0 0.0118394 1000000.0 0 0 0 
449 0 0 0.00864845 1000000.0 0 0 0 
450 0 0 0.00515198 1000000.0 0 0 0 
451 0 0 0.00197391 1000000.0 0 0 0 
452 0 0 0 1000000.0 0 0 0 
453 0 0 0 1000000.0 0 0 0 
454 0 0 0 1000000.0 0 0 0 
455 0 0 8.94e-005 1000000.0 0 0 0 
456 0 0 0 1000000.0 0 0 0 
457 0 0 0.000255981 1000000.0 0 0 0 
458 0 0 8.62e-005 1000000.0 0 0 0 
459 0 0 0 1000000.0 0 0 0 
460 0 0 0 1000000.0 0 0 0 
461 0 0 0.00123183 1000000.0 0 0 0 
462 0 0 0.000637659 1000000.0 0 0 0 
463 0 0 0.00105469 1000000.0 0 0 0 
464 0 0 0.00319418 1000000.0 0 0 0 
465 0 0 0.00600317 1000000.0 0 0 0 
466 0 0 0.00895594 1000000.0 0 0 0 
467 0 0 0.0115847 1000000.0 0 0 0 
468 0 0 0.0141706 1000000.0 0 0 0 
469 0 0 0.015537 1000000.0 0 0 0 
470 0 0 0.0159321 1000000.0 0 0 0 
471 0 0 0.0114815 1000000.0 0 0 0 
472 0 0 0.00970364 1000000.0 0 0 0 
473 0 0 0.00486409 1000000.0 0 0 0 
474 0 0 0.00429172 1000000.0 0 0 0 
475 0 0 0.00122683 1000000.0 0 0 0 
476 0 0 0.000606081 1000000.0 0 0 0 
477 0 0 0.000889755 1000000.0 0 0 0 
477.5 2.41087 0 0 1000000.0 0 0 0 
479 0 0 0.00133452 1000000.0 0 0 0 
480 0 0 0.00325361 1000000.0 0 0 0 
481 0 0 0.00247374 1000000.0 0 0 0 
482 0 0 0.00203196 1000000.0 0 0 0 
483 0 0 0.00221288 1000000.0 0 0 0 
484 0 0 0.00105183 1000000.0 0 0 0 
485 0 0 0.00266394 1000000.0 0 0 0 
486 0 0 0.00146909 1000000.0 0 0 0 
487 0 0 0.00134503 1000000.0 0 0 0 
488 0 0 0.00186516 1000000.0 0 0 0 
489 0 0 0.00350293 1000000.0 0 0 0 
490 0 0 0.00398916 1000000.0 0 0 0 
491 0 0 0.00483068 1000000.0 0 0 0 
492 0 0 0.00646163 1000000.0 0 0 0 
493 0 0 0.0107115 1000000.0 0 0 0 
494 0 0 0.0134342 1000000.0 0 0 0 
495 0 0 0.0102611 1000000.0 0 0 0 
496 0 0 0.0128139 1000000.0 0 0 0 
497 0 0 0.0103847 1000000.0 0 0 0 
498 0 0 0.00533623 1000000.0 0 0 0 
499 0 0 0.00255387 1000000.0 0 0 0 
500 0 0 0.00137347 1000000.0 0 0 0 
501 0 0 0 1000000.0 0 0 0 
502 0 0 0 1000000.0 0 0 0 
503 0 0 0 1000000.0 0 0 0 
504 0 0 0 1000000.0 0 0 0 
505 0 0 0 1000000.0 0 0 0 
506 0 0 4.1e-005 1000000.0 0 0 0 
507 0 0 0 1000000.0 0 0 0 
508 0 0 0 1000000.0 0 0 0 
509 0 0 0.000618521 1000000.0 0 0 0 
510 0 0 0.000606971 1000000.0 0 0 0 
511 0 0 0.00072299 1000000.0 0 0 0 
512 0 0 0.0012121 1000000.0 0 0 0 
513 0 0 0.0021726 1000000.0 0 0 0 
514 0 0 0.00295301 1000000.0 0 0 0 
515 0 0 0.0054348 1000000.0 0 0 0 
516 0 0 0.00506768 1000000.0 0 0 0 
517 0 0 0.00385634 1000000.0 0 0 0 
518 0 0 0.00577819 1000000.0 0 0 0 
519 0 0 0.00728211 1000000.0 0 0 0 
520 0 0 0.00593861 1000000.0 0 0 0 
521 0 0 0.00301403 1000000.0 0 0 0 
522 0 0 0.000497075 1000000.0 0 0 0 
523 0 0 0 1000000.0 0 0 0 
524 0 0 0 1000000.0 0 0 0 
525 0 0 0 1000000.0 0 0 0 
526 0 0 0 1000000.0 0 0 0 
527 0 0 0 1000000.0 0 0 0 
528 0 0 0 1000000.0 0 0 0 
529 0 0 0.000662577 1000000.0 0 0 0 
530 0 0 0.000448286 1000000.0 0 0 0 
531 0 0 0.000729185 1000000.0 0 0 0 
532 0 0 0.000525231 1000000.0 0 0 0 
533 0 0 0.00134724 1000000.0 0 0 0 
534 0 0 0.000852962 1000000.0 0 0 0 
535 0 0 0.000839505 1000000.0 0 0 0 
536 0 0 0.00138821 1000000.0 0 0 0 
537 0 0 0.00305622 1000000.0 0 0 0 
538 0 0 0.00722538 1000000.0 0 0 0 
539 0 0 0.0117482 1000000.0 0 0 0 
540 0 0 0.0141686 1000000.0 0 0 0 
541 0 0 0.0156887 1000000.0 0 0 0 
542 0 0 0.0166451 1000000.0 0 0 0 
543 0 0 0.0170704 1000000.0 0 0 0 
544 0 0 0.0061027 1000000.0 0 0 0 
545 0 0 0.00452504 1000000.0 0 0 0 
546 0 0 0.00213887 1000000.0 0 0 0 
547 0 0 0.00273658 1000000.0 0 0 0 
548 0 0 0.000652666 1000000.0 0 0 0 
548.287 2.41087 0 0.000652953 1000000.0 0 0 0 
550 0 0 0 1000000.0 0 0 0 
551 0 0 0.000763635 1000000.0 0 0 0 
552 0 0 0 1000000.0 0 0 0 
553 0 0 0 1000000.0 0 0 0 
554 0 0 0.00188245 1000000.0 0 0 0 
555 0 0 0 1000000.0 0 0 0 
556 0 0 0.00033879 1000000.0 0 0 0 
557 0 0 0.00261568 1000000.0 0 0 0 
558 0 0 0.00110949 1000000.0 0 0 0 
559 0 0 0.0019653 1000000.0 0 0 0 
560 0 0 0.00411123 1000000.0 0 0 0 
561 0 0 0.00733851 1000000.0 0 0 0 
562 0 0 0.010713 1000000.0 0 0 0 
563 0 0 0.0142987 1000000.0 0 0 0 
564 0 0 0.0149685 1000000.0 0 0 0 
565 0 0 0.0181052 1000000.0 0 0 0 
566 0 0 0.0188421 1000000.0 0 0 0 
567 0 0 0.0146428 1000000.0 0 0 0 
568 0 0 0.017569 1000000.0 0 0 0 
569 0 0 0.0148697 1000000.0 0 0 0 
570 0 0 0.0124102 1000000.0 0 0 0 
571 0 0 0.0084123 1000000.0 0 0 0 
572 0 0 0.00438293 1000000.0 0 0 0 
573 0 0 0 1000000.0 0 0 0 
574 0 0 0 1000000.0 0 0 0 
575 0 0 0.000426984 1000000.0 0 0 0 
576 0 0 0.00168921 1000000.0 0 0 0 
577 0 0 0.000376393 1000000.0 0 0 0 
578 0 0 0 1000000.0 0 0 0 
579 0 0 0 1000000.0 0 0 0 
580 0 0 0 1000000.0 0 0 0 
581 0 0 0.00124783 1000000.0 0 0 0 
582 0 0 0.00139117 1000000.0 0 0 0 
583 0 0 0.00195289 1000000.0 0 0 0 
584 0 0 0.00409181 1000000.0 0 0 0 
584.594 2.41087 0 0.0074285 1000000.0 0 0 0 
586 0 0 0.0122117 1000000.0 0 0 0 
587 0 0 0.0162191 1000000.0 0 0 0 
588 0 0 0.0165488 1000000.0 0 0 0 
589 0 0 0.0175209 1000000.0 0 0 0 
590 0 0 0.0138122 1000000.0 0 0 0 
591 0 0 0.0205693 1000000.0 0 0 0 
592 0 0 0.0148998 1000000.0 0 0 0 
593 0 0 0.0115074 1000000.0 0 0 0 
594 0 0 0.0067086 1000000.0 0 0 0 
595 0 0 0.00353422 1000000.0 0 0 0 
596 0 0 0.00366817 1000000.0 0 0 0 
597 0 0 0.00178322 1000000.0 0 0 0 
598 0 0 0 1000000.0 0 0 0 
599 0 0 0 1000000.0 0 0 0 
600 0 0 0 1000000.0 0 0 0 
601 0 0 0 1000000.0 0 0 0 
602 0 0 0 1000000.0 0 0 0 
603 0 0 0 1000000.0 0 0 0 
604 0 0 0 1000000.0 0 0 0 
605 0 0 0.000967518 1000000.0 0 0 0 
606 0 0 0.0009864 1000000.0 0 0 0 
607 0 0 0.00148551 1000000.0 0 0 0 
608 0 0 0.00419669 1000000.0 0 0 0 
609 0 0 0.00732978 1000000.0 0 0 0 
610 0 0 0.0110671 1000000.0 0 0 0 
611 0 0 0.0143116 1000000.0 0 0 0 
612 0 0 0.0168956 1000000.0 0 0 0 
613 0 0 0.0189194 1000000.0 0 0 0 
614 0 0 0.0198835 1000000.0 0 0 0 
615 0 0 0.0188377 1000000.0 0 0 0 
616 0 0 0.0153359 1000000.0 0 0 0 
617 0 0 0.0119618 1000000.0 0 0 0 
618 0 0 0.00927092 1000000.0 0 0 0 
619 0 0 0.00421581 1000000.0 0 0 0 
620 0 0 0.000371259 1000000.0 0 0 0 
621 0 0 0 1000000.0 0 0 0 
621.276 2.41087 0 0 1000000.0 0 0 0 
623 0 0 0 1000000.0 0 0 0 
624 0 0 0 1000000.0 0 0 0 
625 0 0 0 1000000.0 0 0 0 
626 0 0 0 1000000.0 0 0 0 
627 0 0 0 1000000.0 0 0 0 
628 0 0 0 1000000.0 0 0 0 
629 0 0 0.00104462 1000000.0 0 0 0 
630 0 0 0.00168737 1000000.0 0 0 0 
631 0 0 0.00374601 1000000.0 0 0 0 
632 0 0 0.00473211 1000000.0 0 0 0 
633 0 0 0.00734992 1000000.0 0 0 0 
634 0 0 0.0130844 1000000.0 0 0 0 
635 0 0 0.0155479 1000000.0 0 0 0 
636 0 0 0.0173308 1000000.0 0 0 0 
637 0 0 0.0191016 1000000.0 0 0 0 
638 0 0 0.012025 1000000.0 0 0 0 
639 0 0 0.00542149 1000000.0 0 0 0 
640 0 0 0.00453136 1000000.0 0 0 0 
641 0 0 0.00555742 1000000.0 0 0 0 
642 0 0 0.00282151 1000000.0 0 0 0 
643 0 0 0.00272639 1000000.0 0 0 0 
644 0 0 0.000521025 1000000.0 0 0 0 
645 0 0 0 1000000.0 0 0 0 
646 0 0 0 1000000.0 0 0 0 
647 0 0 0 1000000.0 0 0 0 
648 0 0 0 1000000.0 0 0 0 
649 0 0 0 1000000.0 0 0 0 
650 0 0 0 1000000.0 0 0 0 
651 0 0 0 1000000.0 0 0 0 
652 0 0 0 1000000.0 0 0 0 
653 0 0 0.000709954 1000000.0 0 0 0 
654 0 0 0.00079343 1000000.0 0 0 0 
655 0 0 0.00145852 1000000.0 0 0 0 
656 0 0 0.00415751 1000000.0 0 0 0 
657 0 0 0.00759469 1000000.0 0 0 0 
658 0 0 0.0109017 1000000.0 0 0 0 
659 0 0 0.013829 1000000.0 0 0 0 
660 0 0 0.0164562 1000000.0 0 0 0 
661 0 0 0.01774 1000000.0 0 0 0 
662 0 0 0.0194562 1000000.0 0 0 0 
663 0 0 0.0162129 1000000.0 0 0 0 
664 0 0 0.0142958 1000000.0 0 0 0 
665 0 0 0.013579 1000000.0 0 0 0 
666 0 0 0.00760426 1000000.0 0 0 0 
666.415 2.41087 0 0.00760857 1000000.0 0 0 0 
668 0 0 0 1000000.0 0 0 0 
669 0 0 0 1000000.0 0 0 0 
670 0 0 0.000781244 1000000.0 0 0 0 
671 0 0 0 1000000.0 0 0 0 
672 0 0 0 1000000.0 0 0 0 
673 0 0 0 1000000.0 0 0 0 
674 0 0 0 1000000.0 0 0 0 
675 0 0 0 1000000.0 0 0 0 
676 0 0 0 1000000.0 0 0 0 
677 0 0 0.000749501 1000000.0 0 0 0 
678 0 0 0.000819527 1000000.0 0 0 0 
679 0 0 0.00180274 1000000.0 0 0 0 
680 0 0 0.00506955 1000000.0 0 0 0 
681 0 0 0.00784834 1000000.0 0 0 0 
682 0 0 0.0118365 1000000.0 0 0 0 
683 0 0 0.0152294 1000000.0 0 0 0 
684 0 0 0.0179797 1000000.0 0 0 0 
685 0 0 0.0193944 1000000.0 0 0 0 
686 0 0 0.0204169 1000000.0 0 0 0 
687 0 0 0.0205619 1000000.0 0 0 0 
688 0 0 0.0187843 1000000.0 0 0 0 
689 0 0 0.0165881 1000000.0 0 0 0 
690 0 0 0.0126172 1000000.0 0 0 0 
691 0 0 0.00673557 1000000.0 0 0 0 
692 0 0 0.00396046 1000000.0 0 0 0 
693 0 0 0.000969368 1000000.0 0 0 0 
694 0 0 0.000265066 1000000.0 0 0 0 
695 0 0 0 1000000.0 0 0 0 
696 0 0 0 1000000.0 0 0 0 
697 0 0 0 1000000.0 0 0 0 
698 0 0 0 1000000.0 0 0 0 
699 0 0 0 1000000.0 0 0 0 
700 0 0 0 1000000.0 0 0 0 
701 0 0 0.000839389 1000000.0 0 0 0 
702 0 0 0.00126563 1000000.0 0 0 0 
703 0 0 0.00150852 1000000.0 0 0 0 
704 0 0 0.00369553 1000000.0 0 0 0 
705 0 0 0.0066067 1000000.0 0 0 0 
706 0 0 0.0114148 1000000.0 0 0 0 
707 0 0 0.0105733 1000000.0 0 0 0 
708 0 0 0.0143065 1000000.0 0 0 0 
709 0 0 0.0165487 1000000.0 0 0 0 
710 0 0 0.0212389 1000000.0 0 0 0 
711 0 0 0.0204654 1000000.0 0 0 0 
712 0 0 0.014089 1000000.0 0 0 0 
713 0 0 0.0127601 1000000.0 0 0 0 
714 0 0 0.00556906 1000000.0 0 0 0 
715 0 0 0.00263848 1000000.0 0 0 0 
716 0 0 0.00146907 1000000.0 0 0 0 
717 0 0 0 1000000.0 0 0 0 
718 0 0 0 1000000.0 0 0 0 
719 0 0 2.48e-005 1000000.0 0 0 0 
720 0 0 0 1000000.0 0 0 0 
721 0 0 0 1000000.0 0 0 0 
722 0 0 0 1000000.0 0 0 0 
723 0 0 0 1000000.0 0 0 0 
724 0 0 0 1000000.0 0 0 0 
725 0 0 0.00107244 1000000.0 0 0 0 
726 0 0 0.000842844 1000000.0 0 0 0 
727 0 0 0.00202817 1000000.0 0 0 0 
728 0 0 0.00521442 1000000.0 0 0 0 
729 0 0 0.00908639 1000000.0 0 0 0 
730 0 0 0.0132518 1000000.0 0 0 0 
731 0 0 0.0166419 1000000.0 0 0 0 
732 0 0 0.0202231 1000000.0 0 0 0 
733 0 0 0.0228851 1000000.0 0 0 0 
734 0 0 0.0136974 1000000.0 0 0 0 
735 0 0 0.00946297 1000000.0 0 0 0 
736 0 0 0.00853856 1000000.0 0 0 0 
737 0 0 0.0088279 1000000.0 0 0 0 
738 0 0 0.00517927 1000000.0 0 0 0 
739 0 0 0.00118071 1000000.0 0 0 0 
739.597 2.41087 0 0.000937524 1000000.0 0 0 0 
741 0 0 0 1000000.0 0 0 0 
742 0 0 0 1000000.0 0 0 0 
743 0 0 0 1000000.0 0 0 0 
744 0 0 0 1000000.0 0 0 0 
745 0 0 0 1000000.0 0 0 0 
746 0 0 0 1000000.0 0 0 0 
747 0 0 0 1000000.0 0 0 0 
748 0 0 0 1000000.0 0 0 0 
749 0 0 0.000844694 1000000.0 0 0 0 
750 0 0 0.000810157 1000000.0 0 0 0 
751 0 0 0.00151713 1000000.0 0 0 0 
752 0 0 0.00413268 1000000.0 0 0 0 
753 0 0 0.0071452 1000000.0 0 0 0 
754 0 0 0.0129915 1000000.0 0 0 0 
755 0 0 0.0169651 1000000.0 0 0 0 
756 0 0 0.0209003 1000000.0 0 0 0 
757 0 0 0.0159179 1000000.0 0 0 0 
758 0 0 0.0157337 1000000.0 0 0 0 
759 0 0 0.0118835 1000000.0 0 0 0 
760 0 0 0.00921485 1000000.0 0 0 0 
761 0 0 0.0142773 1000000.0 0 0 0 
762 0 0 0.0132807 1000000.0 0 0 0 
763 0 0 0.00607579 1000000.0 0 0 0 
764 0 0 0.00243976 1000000.0 0 0 0 
765 0 0 0 1000000.0 0 0 0 
766 0 0 0.00154575 1000000.0 0 0 0 
767 0 0 0 1000000.0 0 0 0 
768 0 0 0 1000000.0 0 0 0 
769 0 0 0 1000000.0 0 0 0 
770 0 0 0 1000000.0 0 0 0 
771 0 0 0 1000000.0 0 0 0 
772 0 0 0 1000000.0 0 0 0 
773 0 0 0.0012592 1000000.0 0 0 0 
774 0 0 0.000739659 1000000.0 0 0 0 
775 0 0 0.00196891 1000000.0 0 0 0 
776 0 0 0.00530762 1000000.0 0 0 0 
777 0 0 0.00841906 1000000.0 0 0 0 
778 0 0 0.0138868 1000000.0 0 0 0 
778.415 2.41087 0 0.0138937 1000000.0 0 0 0 
780 0 0 0.0185574 1000000.0 0 0 0 
781 0 0 0.0196687 1000000.0 0 0 0 
782 0 0 0.0220989 1000000.0 0 0 0 
783 0 0 0.0202314 1000000.0 0 0 0 
784 0 0 0.0201336 1000000.0 0 0 0 
785 0 0 0.0173926 1000000.0 0 0 0 
786 0 0 0.0130516 1000000.0 0 0 0 
787 0 0 0.00599836 1000000.0 0 0 0 
788 0 0 0.00118347 1000000.0 0 0 0 
789 0 0 0 1000000.0 0 0 0 
790 0 0 0 1000000.0 0 0 0 
791 0 0 0 1000000.0 0 0 0 
792 0 0 0 1000000.0 0 0 0 
793 0 0 0 1000000.0 0 0 0 
794 0 0 0 1000000.0 0 0 0 
795 0 0 0 1000000.0 0 0 0 
796 0 0 0 1000000.0 0 0 0 
797 0 0 0.00296248 1000000.0 0 0 0 
798 0 0 0.0035897 1000000.0 0 0 0 
799 0 0 0.00238103 1000000.0 0 0 0 
800 0 0 0.00624603 1000000.0 0 0 0 
801 0 0 0.0108125 1000000.0 0 0 0 
802 0 0 0.016266 1000000.0 0 0 0 
803 0 0 0.0203007 1000000.0 0 0 0 
804 0 0 0.0241172 1000000.0 0 0 0 
805 0 0 0.0277027 1000000.0 0 0 0 
806 0 0 0.0259177 1000000.0 0 0 0 
807 0 0 0.0271363 1000000.0 0 0 0 
808 0 0 0.0187657 1000000.0 0 0 0 
809 0 0 0.0138742 1000000.0 0 0 0 
810 0 0 0.0114592 1000000.0 0 0 0 
811 0 0 0.00524004 1000000.0 0 0 0 
812 0 0 0.00465842 1000000.0 0 0 0 
813 0 0 0.00469996 1000000.0 0 0 0 
814 0 0 0.00137113 1000000.0 0 0 0 
815 0 0 0.00291889 1000000.0 0 0 0 
816 0 0 0.00266143 1000000.0 0 0 0 
817 0 0 0.00283991 1000000.0 0 0 0 
818 0 0 0.00218568 1000000.0 0 0 0 
819 0 0 0.00210092 1000000.0 0 0 0 
820 0 0 0.00245428 1000000.0 0 0 0 
821 0 0 0.00423146 1000000.0 0 0 0 
822 0 0 0.00411967 1000000.0 0 0 0 
823 0 0 0.00412748 1000000.0 0 0 0 
824 0 0 0.00509245 1000000.0 0 0 0 
824.415 2.41087 0 0.00509485 1000000.0 0 0 0 
826 0 0 0.0124631 1000000.0 0 0 0 
827 0 0 0.0162409 1000000.0 0 0 0 
828 0 0 0.0165213 1000000.0 0 0 0 
829 0 0 0.0211054 1000000.0 0 0 0 
830 0 0 0.0233729 1000000.0 0 0 0 
831 0 0 0.0225552 1000000.0 0 0 0 
832 0 0 0.0211031 1000000.0 0 0 0 
833 0 0 0.0160364 1000000.0 0 0 0 
834 0 0 0.011915 1000000.0 0 0 0 
835 0 0 0.0071736 1000000.0 0 0 0 
836 0 0 0.00419132 1000000.0 0 0 0 
837 0 0 0.00055567 1000000.0 0 0 0 
838 0 0 0 1000000.0 0 0 0 
839 0 0 0 1000000.0 0 0 0 
840 0 0 0 1000000.0 0 0 0 
841 0 0 0 1000000.0 0 0 0 
842 0 0 0 1000000.0 0 0 0 
843 0 0 0 1000000.0 0 0 0 
844 0 0 0 1000000.0 0 0 0 
845 0 0 0.00078641 1000000.0 0 0 0 
846 0 0 0.000776487 1000000.0 0 0 0 
847 0 0 0.00207777 1000000.0 0 0 0 
848 0 0 0.00496101 1000000.0 0 0 0 
849 0 0 0.00926079 1000000.0 0 0 0 
850 0 0 0.0130444 1000000.0 0 0 0 
851 0 0 0.0171302 1000000.0 0 0 0 
852 0 0 0.0205217 1000000.0 0 0 0 
853 0 0 0.0227761 1000000.0 0 0 0 
854 0 0 0.0239661 1000000.0 0 0 0 