Pcp_File_Version=4
*** BLOCK I: ATMOSPHERIC INFORMATION  **********************************
   MaxAL                    (MaxAL = number of atmospheric data-records)
   2256
 DailyVar  SinusVar  lLay  lBCCycles lInterc lDummy  lDummy  lDummy  lDummy  lDummy
       f       f       f       f       f       f       f       f       f       f
 hCritS                 (max. allowed pressure head at the soil surface)
      0
       tAtm        Prec       rSoil       rRoot      hCritA          rB          hB          ht    RootDepth
          1           0           0           0       11789           0           0           0 
          2           0           0           0       11789           0           0           0 
          3           0           0           0       11789           0           0           0 
          4           0           0           0       11789           0           0           0 
          5           0           0  0.00063749       11789           0           0           0 
          6           0           0 0.000331211       11789           0           0           0 
          7           0           0 0.000507272       11789           0           0           0 
          8           0           0  0.00195865       11789           0           0           0 
          9           0           0   0.0037103       11789           0           0           0 
         10           0           0  0.00486677       11789           0           0           0 
         11           0           0  0.00581595       11789           0           0           0 
         12           0           0  0.00676225       11789           0           0           0 
         13           0           0   0.0074209       11789           0           0           0 
         14           0           0  0.00746594       11789           0           0           0 
         15           0           0  0.00730185       11789           0           0           0 
         16           0           0  0.00648029       11789           0           0           0 
         17           0           0  0.00382028       11789           0           0           0 
         18           0           0  0.00259013       11789           0           0           0 
         19           0           0  0.00161491       11789           0           0           0 
         20           0           0  0.00118973       11789           0           0           0 
         21           0           0  0.00071502       11789           0           0           0 
         22           0           0 0.000411447       11789           0           0           0 
         23           0           0 0.000324755       11789           0           0           0 
         24           0           0 0.000265806       11789           0           0           0 
         25           0           0  0.00019948       11789           0           0           0 
    26.0006     2.41087           0 0.000126208       11789           0           0           0 
         27           0           0           0       11789           0           0           0 
         28           0           0 0.000154543       11789           0           0           0 
         29           0           0 0.000417264       11789           0           0           0 
         30           0           0 0.000431631       11789           0           0           0 
         31           0           0 0.000363033       11789           0           0           0 
         32           0           0 0.000542437       11789           0           0           0 
         33           0           0 0.000975914       11789           0           0           0 
         34           0           0  0.00189509       11789           0           0           0 
         35           0           0  0.00221082       11789           0           0           0 
         36           0           0  0.00261606       11789           0           0           0 
         37           0           0  0.00324405       11789           0           0           0 
         38           0           0  0.00449202       11789           0           0           0 
         39           0           0  0.00600729       11789           0           0           0 
         40           0           0  0.00531434       11789           0           0           0 
         41           0           0  0.00481906       11789           0           0           0 
         42           0           0  0.00373886       11789           0           0           0 
         43           0           0  0.00193511       11789           0           0           0 
         44           0           0  0.00077048       11789           0           0           0 
         45           0           0           0       11789           0           0           0 
         46           0           0           0       11789           0           0           0 
         47           0           0           0       11789           0           0           0 
         48           0           0           0       11789           0           0           0 
         49           0           0           0       11789           0           0           0 
         50           0           0           0       11789           0           0           0 
         51           0           0           0       11789           0           0           0 
         52           0           0           0       11789           0           0           0 
         53           0           0 0.000278681       11789           0           0           0 
         54           0           0 0.000277011       11789           0           0           0 
         55           0           0 0.000407679       11789           0           0           0 
         56           0           0 0.000838216       11789           0           0           0 
         57           0           0  0.00162026       11789           0           0           0 
         58           0           0  0.00243762       11789           0           0           0 
         59           0           0  0.00283289       11789           0           0           0 
         60           0           0  0.00312099       11789           0           0           0 
         61           0           0  0.00311328       11789           0           0           0 
         62           0           0  0.00320959       11789           0           0           0 
         63           0           0  0.00270327       11789           0           0           0 
         64           0           0  0.00219609       11789           0           0           0 
         65           0           0  0.00287618       11789           0           0           0 
         66           0           0  0.00255929       11789           0           0           0 
         67           0           0  0.00193184       11789           0           0           0 
         68           0           0 0.000746871       11789           0           0           0 
         69           0           0 0.000320671       11789           0           0           0 
         70           0           0  0.00053935       11789           0           0           0 
         71           0           0  0.00014676       11789           0           0           0 
         72           0           0 0.000694242       11789           0           0           0 
         73           0           0  0.00114218       11789           0           0           0 
         74           0           0  0.00101284       11789           0           0           0 
         75           0           0 0.000741614       11789           0           0           0 
         76           0           0 0.000370768       11789           0           0           0 
         77           0           0 0.000420291       11789           0           0           0 
         78           0           0 0.000606305       11789           0           0           0 
         79           0           0  0.00184994       11789           0           0           0 
         80           0           0  0.00238424       11789           0           0           0 
         81           0           0  0.00378199       11789           0           0           0 
         82           0           0  0.00477309       11789           0           0           0 
         83           0           0  0.00559287       11789           0           0           0 
         84           0           0  0.00625167       11789           0           0           0 
         85           0           0  0.00698901       11789           0           0           0 
         86           0           0  0.00758236       11789           0           0           0 
         87           0           0  0.00710916       11789           0           0           0 
         88           0           0  0.00635536       11789           0           0           0 
         89           0           0  0.00580905       11789           0           0           0 
         90           0           0  0.00494461       11789           0           0           0 
         91           0           0  0.00354863       11789           0           0           0 
         92           0           0  0.00257313       11789           0           0           0 
         93           0           0 0.000543179       11789           0           0           0 
         94           0           0           0       11789           0           0           0 
         95           0           0           0       11789           0           0           0 
         96           0           0           0       11789           0           0           0 
         97           0           0           0       11789           0           0           0 
         98           0           0           0       11789           0           0           0 
         99           0           0           0       11789           0           0           0 
        100           0           0           0       11789           0           0           0 
        101           0           0 0.000260306       11789           0           0           0 
        102           0           0 0.000248511       11789           0           0           0 
        103           0           0 0.000485306       11789           0           0           0 
        104           0           0  0.00164766       11789           0           0           0 
        105           0           0  0.00341007       11789           0           0           0 
        106           0           0  0.00507254       11789           0           0           0 
        107           0           0  0.00669852       11789           0           0           0 
        108           0           0  0.00840169       11789           0           0           0 
        109           0           0  0.00933722       11789           0           0           0 
        110           0           0  0.00987971       11789           0           0           0 
        111           0           0  0.00954946       11789           0           0           0 
        112           0           0  0.00848381       11789           0           0           0 
        113           0           0  0.00636009       11789           0           0           0 
        114           0           0   0.0043766       11789           0           0           0 
        115           0           0  0.00283004       11789           0           0           0 
        116           0           0     0.00154       11789           0           0           0 
        117           0           0           0       11789           0           0           0 
        118           0           0           0       11789           0           0           0 
        119           0           0           0       11789           0           0           0 
        120           0           0           0       11789           0           0           0 
        121           0           0           0       11789           0           0           0 
      121.5     2.41087           0           0       11789           0           0           0 
        123           0           0           0       11789           0           0           0 
        124           0           0           0       11789           0           0           0 
        125           0           0 0.000793501       11789           0           0           0 
        126           0           0 0.000684745       11789           0           0           0 
        127           0           0 0.000615913       11789           0           0           0 
        128           0           0  0.00189472       11789           0           0           0 
        129           0           0  0.00369671       11789           0           0           0 
        130           0           0  0.00570345       11789           0           0           0 
        131           0           0  0.00802396       11789           0           0           0 
        132           0           0    0.009276       11789           0           0           0 
        133           0           0   0.0100552       11789           0           0           0 
        134           0           0   0.0100599       11789           0           0           0 
        135           0           0  0.00940236       11789           0           0           0 
        136           0           0  0.00852352       11789           0           0           0 
        137           0           0  0.00633101       11789           0           0           0 
        138           0           0  0.00369175       11789           0           0           0 
        139           0           0  0.00112163       11789           0           0           0 
        140           0           0           0       11789           0           0           0 
        141           0           0           0       11789           0           0           0 
        142           0           0           0       11789           0           0           0 
        143           0           0           0       11789           0           0           0 
        144           0           0           0       11789           0           0           0 
        145           0           0           0       11789           0           0           0 
        146           0           0           0       11789           0           0           0 
        147           0           0           0       11789           0           0           0 
        148           0           0           0       11789           0           0           0 
        149           0           0 0.000422197       11789           0           0           0 
        150           0           0 0.000387038       11789           0           0           0 
        151           0           0 0.000623687       11789           0           0           0 
        152           0           0  0.00134232       11789           0           0           0 
        153           0           0  0.00228863       11789           0           0           0 
        154           0           0   0.0036491       11789           0           0           0 
        155           0           0  0.00622289       11789           0           0           0 
        156           0           0  0.00786151       11789           0           0           0 
        157           0           0  0.00819531       11789           0           0           0 
        158           0           0  0.00883548       11789           0           0           0 
        159           0           0  0.00743677       11789           0           0           0 
        160           0           0  0.00674793       11789           0           0           0 
        161           0           0  0.00725986       11789           0           0           0 
        162           0           0  0.00350833       11789           0           0           0 
        163           0           0  0.00209791       11789           0           0           0 
        164           0           0 0.000162156       11789           0           0           0 
        165           0           0           0       11789           0           0           0 
        166           0           0           0       11789           0           0           0 
        167           0           0           0       11789           0           0           0 
        168           0           0           0       11789           0           0           0 
        169           0           0           0       11789           0           0           0 
        170           0           0           0       11789           0           0           0 
        171           0           0           0       11789           0           0           0 
        172           0           0           0       11789           0           0           0 
        173           0           0 0.000774623       11789           0           0           0 
        174           0           0  0.00055492       11789           0           0           0 
        175           0           0 0.000805485       11789           0           0           0 
        176           0           0  0.00241721       11789           0           0           0 
        177           0           0  0.00355831       11789           0           0           0 
        178           0           0  0.00556765       11789           0           0           0 
        179           0           0  0.00766736       11789           0           0           0 
        180           0           0  0.00903921       11789           0           0           0 
        181           0           0   0.0118631       11789           0           0           0 
        182           0           0  0.00935776       11789           0           0           0 
        183           0           0  0.00905244       11789           0           0           0 
        184           0           0  0.00975835       11789           0           0           0 
        185           0           0  0.00584048       11789           0           0           0 
        186           0           0  0.00369298       11789           0           0           0 
        187           0           0  0.00244045       11789           0           0           0 
        188           0           0 0.000999164       11789           0           0           0 
        189           0           0           0       11789           0           0           0 
        190           0           0 0.000113542       11789           0           0           0 
        191           0           0   8.83e-005       11789           0           0           0 
        192           0           0           0       11789           0           0           0 
        193           0           0           0       11789           0           0           0 
        194           0           0   2.68e-005       11789           0           0           0 
        195           0           0           0       11789           0           0           0 
        196           0           0           0       11789           0           0           0 
        197           0           0 0.000592333       11789           0           0           0 
        198           0           0 0.000471698       11789           0           0           0 
        199           0           0 0.000681771       11789           0           0           0 
        200           0           0  0.00237853       11789           0           0           0 
      200.5     2.41087           0  0.00455987       11789           0           0           0 
        202           0           0  0.00669186       11789           0           0           0 
        203           0           0  0.00854656       11789           0           0           0 
        204           0           0   0.0105993       11789           0           0           0 
        205           0           0   0.0116878       11789           0           0           0 
        206           0           0   0.0121835       11789           0           0           0 
        207           0           0   0.0120399       11789           0           0           0 
        208           0           0   0.0103157       11789           0           0           0 
        209           0           0  0.00867159       11789           0           0           0 
        210           0           0  0.00676866       11789           0           0           0 
        211           0           0  0.00421207       11789           0           0           0 
        212           0           0  0.00286946       11789           0           0           0 
        213           0           0  0.00237754       11789           0           0           0 
        214           0           0  0.00160116       11789           0           0           0 
        215           0           0           0       11789           0           0           0 
        216           0           0           0       11789           0           0           0 
        217           0           0           0       11789           0           0           0 
        218           0           0           0       11789           0           0           0 
        219           0           0           0       11789           0           0           0 
        220           0           0           0       11789           0           0           0 
        221           0           0  0.00124226       11789           0           0           0 
        222           0           0  0.00121342       11789           0           0           0 
        223           0           0  0.00138427       11789           0           0           0 
        224           0           0  0.00253184       11789           0           0           0 
        225           0           0  0.00242889       11789           0           0           0 
        226           0           0  0.00222163       11789           0           0           0 
        227           0           0   0.0027813       11789           0           0           0 
        228           0           0  0.00369256       11789           0           0           0 
        229           0           0  0.00587036       11789           0           0           0 
        230           0           0   0.0052105       11789           0           0           0 
        231           0           0  0.00457955       11789           0           0           0 
        232           0           0  0.00238396       11789           0           0           0 
        233           0           0  0.00149639       11789           0           0           0 
        234           0           0 0.000493057       11789           0           0           0 
        235           0           0           0       11789           0           0           0 
        236           0           0           0       11789           0           0           0 
        237           0           0           0       11789           0           0           0 
        238           0           0           0       11789           0           0           0 
        239           0           0           0       11789           0           0           0 
        240           0           0           0       11789           0           0           0 
        241           0           0           0       11789           0           0           0 
        242           0           0           0       11789           0           0           0 
        243           0           0           0       11789           0           0           0 
        244           0           0           0       11789           0           0           0 
        245           0           0 0.000354828       11789           0           0           0 
        246           0           0 0.000360303       11789           0           0           0 
        247           0           0 0.000414561       11789           0           0           0 
        248           0           0  0.00066088       11789           0           0           0 
        249           0           0  0.00125412       11789           0           0           0 
        250           0           0  0.00158609       11789           0           0           0 
        251           0           0  0.00148204       11789           0           0           0 
        252           0           0  0.00215446       11789           0           0           0 
        253           0           0   0.0017805       11789           0           0           0 
        254           0           0  0.00130716       11789           0           0           0 
        255           0           0  0.00125081       11789           0           0           0 
        256           0           0  0.00202575       11789           0           0           0 
        257           0           0  0.00147394       11789           0           0           0 
        258           0           0 0.000109889       11789           0           0           0 
        259           0           0           0       11789           0           0           0 
        260           0           0           0       11789           0           0           0 
        261           0           0           0       11789           0           0           0 
        262           0           0           0       11789           0           0           0 
        263           0           0           0       11789           0           0           0 
        264           0           0           0       11789           0           0           0 
        265           0           0           0       11789           0           0           0 
        266           0           0           0       11789           0           0           0 
        267           0           0           0       11789           0           0           0 
        268           0           0           0       11789           0           0           0 
        269           0           0 0.000348695       11789           0           0           0 
        270           0           0 0.000356432       11789           0           0           0 
        271           0           0 0.000416982       11789           0           0           0 
        272           0           0 0.000638263       11789           0           0           0 
        273           0           0  0.00086876       11789           0           0           0 
        274           0           0  0.00154421       11789           0           0           0 
        275           0           0  0.00189832       11789           0           0           0 
        276           0           0  0.00246497       11789           0           0           0 
        277           0           0  0.00236499       11789           0           0           0 
        278           0           0  0.00186937       11789           0           0           0 
        279           0           0  0.00141579       11789           0           0           0 
        280           0           0  0.00108701       11789           0           0           0 
        281           0           0 0.000778778       11789           0           0           0 
        282           0           0  0.00024842       11789           0           0           0 
        283           0           0           0       11789           0           0           0 
        284           0           0           0       11789           0           0           0 
        285           0           0           0       11789           0           0           0 
        286           0           0           0       11789           0           0           0 
        287           0           0           0       11789           0           0           0 
        288           0           0           0       11789           0           0           0 
        289           0           0           0       11789           0           0           0 
        290           0           0           0       11789           0           0           0 
        291           0           0           0       11789           0           0           0 
        292           0           0           0       11789           0           0           0 
        293           0           0 0.000322455       11789           0           0           0 
        294           0           0  0.00032688       11789           0           0           0 
        295           0           0 0.000757388       11789           0           0           0 
        296           0           0   0.0023624       11789           0           0           0 
        297           0           0  0.00444399       11789           0           0           0 
        298           0           0  0.00673933       11789           0           0           0 
        299           0           0    0.008573       11789           0           0           0 
        300           0           0   0.0101394       11789           0           0           0 